@<TRIPOS>MOLECULE
HTS1710-00000001-01
 45 48 1 0 0
SMALL
USER_CHARGES

@<TRIPOS>ATOM
   1 S1       -3.8909     1.1435     0.5678 S.O2   1 LGD   1.4489 
   2 C1       -2.1609     1.1155     0.0758 C.ar   1 LGD  -0.4610 
   3 N1        0.1341     0.6365     0.6598 N.ar   1 LGD  -0.7001 
   4 C2        0.5371     0.9815    -0.5872 C.ar   1 LGD   0.4371 
   5 C3        1.9081     0.9225    -0.9502 C.ar   1 LGD   0.0565 
   6 N2        2.8691     0.4835    -0.0342 N.pl3  1 LGD  -0.6796 
   7 C4       -1.7669     1.4795    -1.2202 C.ar   1 LGD   0.0635 
   8 C5       -0.4029     1.4185    -1.5562 C.ar   1 LGD  -0.1675 
   9 C6       -1.1719     0.6995     0.9818 C.ar   1 LGD   0.5038 
  10 O1       -3.9369     1.4265     2.0058 O.2    1 LGD  -0.6465 
  11 O2       -4.6299     1.9625    -0.3992 O.2    1 LGD  -0.6465 
  12 C7       -4.3649    -0.5785     0.3328 C.ar   1 LGD  -0.3993 
  13 N3        4.7741    -0.4055     1.9128 N.4    1 LGD  -0.7597 
  14 C8        2.3071     1.3035    -2.2472 C.ar   1 LGD  -0.1282 
  15 C9        4.1271     1.2285     0.1648 C.3    1 LGD   0.1946 
  16 C10       2.9541    -0.9455     0.3248 C.3    1 LGD   0.1946 
  17 C11       0.0101     1.7895    -2.8462 C.ar   1 LGD  -0.0789 
  18 C12       1.3651     1.7345    -3.1892 C.ar   1 LGD  -0.1223 
  19 C13       3.4771    -1.1015     1.7708 C.3    1 LGD   0.0950 
  20 C14       4.6401     1.0365     1.6108 C.3    1 LGD   0.0950 
  21 C15      -4.1479    -1.5145     1.3608 C.ar   1 LGD  -0.0163 
  22 C16      -4.9249    -1.0005    -0.8882 C.ar   1 LGD  -0.0163 
  23 C17      -5.2759    -2.3475    -1.0742 C.ar   1 LGD  -0.1526 
  24 C18      -4.4999    -2.8615     1.1728 C.ar   1 LGD  -0.1526 
  25 C19      -5.0639    -3.2775    -0.0432 C.ar   1 LGD  -0.0545 
  26 H1       -2.5019     1.8015    -1.9532 H      1 LGD   0.1674 
  27 H2       -1.4309     0.3995     1.9958 H      1 LGD   0.0516 
  28 H3        5.4441    -0.8175     1.2808 H      1 LGD   0.4492 
  29 H4        3.3551     1.2565    -2.5332 H      1 LGD   0.1380 
  30 H5        4.8861     0.8725    -0.5442 H      1 LGD   0.0795 
  31 H6        3.9631     2.2985    -0.0152 H      1 LGD   0.0795 
  32 H7        1.9661    -1.4165     0.2498 H      1 LGD   0.0795 
  33 H8        3.6301    -1.4605    -0.3682 H      1 LGD   0.0795 
  34 H9       -0.7169     2.1225    -3.5822 H      1 LGD   0.1567 
  35 H10       1.6861     2.0215    -4.1872 H      1 LGD   0.1562 
  36 H11       2.7611    -0.6675     2.4708 H      1 LGD   0.1148 
  37 H12       3.6091    -2.1585     2.0068 H      1 LGD   0.1148 
  38 H13       3.9341     1.4815     2.3138 H      1 LGD   0.1148 
  39 H14       5.6111     1.5195     1.7288 H      1 LGD   0.1148 
  40 H15      -3.7049    -1.2055     2.3028 H      1 LGD   0.1518 
  41 H16      -5.0859    -0.2905    -1.6952 H      1 LGD   0.1518 
  42 H17      -5.7089    -2.6705    -2.0162 H      1 LGD   0.1487 
  43 H18      -4.3319    -3.5815     1.9678 H      1 LGD   0.1487 
  44 H19      -5.3349    -4.3195    -0.1882 H      1 LGD   0.1464 
  45 H20       5.1051    -0.5145     2.8618 H      1 LGD   0.4492 
@<TRIPOS>BOND
     1     1     2   1
     2     3     9  ar
     3     4     8  ar
     4     4     5   1
     5     5     6   1
     6     2     7  ar
     7     7     8  ar
     8     2     9  ar
     9     1    10   2
    10     1    11   2
    11     1    12   1
    12    13    20   1
    13    14    18   1
    14     6    15   1
    15     6    16   1
    16     8    17   1
    17    17    18   2
    18    16    19   1
    19    15    20   1
    20    12    21  ar
    21    12    22  ar
    22    22    23  ar
    23    21    24  ar
    24    24    25  ar
    25    23    25  ar
    26     3     4  ar
    27     5    14   2
    28    13    19   1
    29     7    26   1
    30     9    27   1
    31    13    28   1
    32    14    29   1
    33    15    30   1
    34    15    31   1
    35    16    32   1
    36    16    33   1
    37    17    34   1
    38    18    35   1
    39    19    36   1
    40    19    37   1
    41    20    38   1
    42    20    39   1
    43    21    40   1
    44    22    41   1
    45    23    42   1
    46    24    43   1
    47    25    44   1
    48    13    45   1

@<TRIPOS>SUBSTRUCTURE
1 UNK1 1
